Sistemas teste e codigos/ED_piorCaso/Sistemas/ieee14.cdf
 0 /0 /0  ****   Sistema teste  100.0                                                                                         
BUS DATA FOLLOWS                       14 ITEMS                                                                               
   1  BARRA-1      1     3  1.060      0        0         0     0.0     0.0     1.0          99999   -9999     0.0     0.0  0.0
   2  BARRA-2      1     2  1.045    0.0     21.7      12.7      40     0.0     1.0             50     -40     0.0     0.0  0.0
   3  BARRA-3      1     2  1.010    0.0     94.2        19       0       0     1.0             40       0     0.0     0.0  0.0
   4  BARRA-4      1     0  1.000    0.0     47.8      -3.9     0.0     0.0     1.0            0.0     0.0     0.0     0.0  0.0
   5  BARRA-5      1     0  1.000    0.0      7.6       1.6     0.0     0.0     1.0            0.0     0.0     0.0     0.0  0.0
   6  BARRA-6      1     2  1.070    0.0     11.2       7.5       0       0     1.0             24      -6     0.0     0.0  0.0
   7  BARRA-7      1     0  1.000    0.0        0         0     0.0     0.0     1.0            0.0     0.0     0.0     0.0  0.0
   8  BARRA-8      1     2  1.090    0.0        0         0       0       0     1.0             24      -6     0.0     0.0  0.0
   9  BARRA-9      1     0  1.000    0.0     29.5      16.6     0.0     0.0     1.0            0.0     0.0     0.0    0.19  0.0
  10  BARRA-10     1     0  1.000    0.0        9       5.8     0.0     0.0     1.0            0.0     0.0     0.0     0.0  0.0
  11  BARRA-11     1     0  1.000    0.0      3.5       1.8     0.0     0.0     1.0            0.0     0.0     0.0     0.0  0.0
  12  BARRA-12     1     0  1.000    0.0      6.1       1.6     0.0     0.0     1.0            0.0     0.0     0.0     0.0  0.0
  13  BARRA-13     1     0  1.000    0.0     13.5       5.8     0.0     0.0     1.0            0.0     0.0     0.0     0.0  0.0
  14  BARRA-14     1     0  1.000    0.0     14.9         5     0.0     0.0     1.0            0.0     0.0     0.0     0.0  0.0
-999
BRANCH DATA FOLLOWS                    20 ITEMS                                                                               
   1    2             0.01938    0.05917    0.0528                             0.0     0.0                                    
   1    5             0.05403    0.22304    0.0492                             0.0     0.0                                    
   2    3             0.04699    0.19797    0.0438                             0.0     0.0                                    
   2    4             0.05811    0.17632    0.0374                             0.0     0.0                                    
   2    5             0.05695    0.17388     0.034                             0.0     0.0                                    
   3    4             0.06701    0.17103    0.0346                             0.0     0.0                                    
   4    5             0.01335    0.04211    0.0128                             0.0     0.0                                    
   4    7                 0.0    0.20912       0.0                           0.978     0.0                                    
   4    9                 0.0    0.55618       0.0                           0.969     0.0                                    
   5    6                 0.0    0.25202       0.0                           0.932     0.0                                    
   6   11             0.09498     0.1989       0.0                             0.0     0.0                                    
   6   12             0.12291    0.25581       0.0                             0.0     0.0                                    
   6   13             0.06615    0.13027       0.0                             0.0     0.0                                    
   7    8                 0.0    0.17615       0.0                             0.0     0.0                                    
   7    9                 0.0    0.11001       0.0                             0.0     0.0                                    
   9   10             0.03181     0.0845       0.0                             0.0     0.0                                    
   9   14             0.12711    0.27038       0.0                             0.0     0.0                                    
  10   11             0.08205    0.19207       0.0                             0.0     0.0                                    
  12   13             0.22092    0.19988       0.0                             0.0     0.0                                    
  13   14             0.17093    0.34802       0.0                             0.0     0.0                                    
-999
END OF DATA
